LAMMPS (20 Apr 2018)
# two monomer nylon example
# reaction produces a condensed water molecule

units real

boundary p p p

atom_style full

kspace_style pppm 1.0e-4

pair_style lj/class2/coul/long 8.5

angle_style class2

bond_style class2

dihedral_style class2

improper_style class2

read_data tiny_nylon.data
  orthogonal box = (-25 -25 -25) to (25 25 25)
  reading atoms ...
  44 atoms
  reading velocities ...
  44 velocities
  scanning bonds ...
  scanning angles ...
  scanning dihedrals ...
  scanning impropers ...
  reading bonds ...
  42 bonds
  reading angles ...
  74 angles
  reading dihedrals ...
  100 dihedrals
  reading impropers ...
  44 impropers

velocity all create 300.0 4928459 dist gaussian

molecule mol1 rxn1_stp1_unreacted.data_template
Read molecule mol1:
  18 atoms with max type 8
  16 bonds with max type 14
  25 angles with max type 28
  23 dihedrals with max type 36
  14 impropers with max type 11
molecule mol2 rxn1_stp1_reacted.data_template
Read molecule mol2:
  18 atoms with max type 9
  17 bonds with max type 13
  31 angles with max type 27
  39 dihedrals with max type 33
  20 impropers with max type 1
molecule mol3 rxn1_stp2_unreacted.data_template
Read molecule mol3:
  15 atoms with max type 9
  14 bonds with max type 13
  25 angles with max type 27
  30 dihedrals with max type 33
  16 impropers with max type 1
molecule mol4 rxn1_stp2_reacted.data_template
Read molecule mol4:
  15 atoms with max type 11
  13 bonds with max type 15
  19 angles with max type 29
  16 dihedrals with max type 32
  10 impropers with max type 13

thermo 50

# dump 1 all xyz 1 test_vis.xyz

fix myrxns all bond/react stabilization yes statted_grp .03   react rxn1 all 1 0.0 2.9 mol1 mol2 rxn1_stp1_map   react rxn2 all 1 0.0 5.0 mol3 mol4 rxn1_stp2_map
dynamic group bond_react_MASTER_group defined
dynamic group statted_grp defined
dynamic group bond_react_MASTER_group defined
dynamic group statted_grp defined

fix 1 statted_grp nvt temp 300 300 100

fix 4 bond_react_MASTER_group temp/rescale 1 300 300 10 1

thermo_style custom step temp press density f_myrxns[1] f_myrxns[2]

# restart 100 restart1 restart2

run 10000
PPPM initialization ...
  G vector (1/distance) = 0.0534597
  grid = 2 2 2
  stencil order = 5
  estimated absolute RMS force accuracy = 0.0402256
  estimated relative force accuracy = 0.000121138
  3d grid and FFT values/proc = 252 2
  update every 1 steps, delay 10 steps, check yes
Step Temp Press Density f_myrxns[1] f_myrxns[2]
0          300    346.78165 0.0034851739            0            0
Averages over the last 101 of 201 rows, steps 5000 to 10000:
Temp Press Density f_myrxns[1] f_myrxns[2]
307.484 1.26602 0.00348517 1 1
Loop time of 3.55353 on 4 procs for 10000 steps with 44 atoms

# write_restart restart_longrun
# write_data restart_longrun.data

Please see the log.cite file for references relevant to this simulation
