read_data	PE_nc10_cl1000.dat
  orthogonal box = (0 0 0) to (80.0586 80.0586 80.0586)
  reading atoms ...
  10000 atoms
  scanning bonds ...
  scanning angles ...
  scanning dihedrals ...
  reading bonds ...
  9990 bonds
  reading angles ...
  9980 angles
  reading dihedrals ...
  9970 dihedrals

# Dreiding potential information
neighbor	0.4 bin
neigh_modify	every 10 one 10000
bond_style      harmonic
bond_coeff	1 350 1.53
angle_style     harmonic
angle_coeff	1 60 109.5
dihedral_style	multi/harmonic
dihedral_coeff	1 1.73 -4.49 0.776 6.99 0.0
pair_style	lj/cut 10.5
pair_coeff	1 1 0.112 4.01 10.5

#####################################################
# Equilibration Stage 1 (Langevin dynamics at 500 K)
velocity 	all create 500.0 1231
fix		1 all nve/limit 0.05
fix		2 all langevin 500.0 500.0 10.0 904297
thermo_style	custom step temp press
thermo          100
timestep	1
run		10000
  update every 10 steps, delay 10 steps, check yes
Step Temp Press
0          500 1.8475472e+08
Averages over the last 51 of 101 rows, steps 5000 to 10000:
Temp Press
500.082 2089.32
Loop time of 110.352 on 1 procs for 10000 steps with 10000 atoms

unfix 1
unfix 2
write_restart 	restart.PE_nc10_cl1000.dreiding1

#####################################################
# Equilibration Stage 2 (NPT dynamics at 500 K)
fix		1 all npt temp 500.0 500.0 50 iso 0 0 1000 drag 2
fix  		2 all momentum 1 linear 1 1 1
thermo_style	custom step temp press
thermo          100
timestep	0.5
reset_timestep	0
run		50000
Step Temp Press
0    499.69714    1403.8204
Averages over the last 251 of 501 rows, steps 25000 to 50000:
Temp Press
500.029 -30.6716
Loop time of 554.154 on 1 procs for 50000 steps with 10000 atoms

unfix 1
unfix 2
write_restart 	restart.PE_nc10_cl1000.dreiding2

#####################################################
# Equilibration Stage 3 (NPT dynamics from 500 K --> 100 K)
fix		1 all npt temp 500 100 50 iso 0 0 1000 drag 2
fix		2 all momentum 1 linear 1 1 1
thermo_style	custom step temp press
thermo          10
timestep	0.5
reset_timestep 	0
run		50000
Step Temp Press
0    500.38515   -179.57237
Averages over the last 2501 of 5001 rows, steps 25000 to 50000:
Temp Press
203.435 -18.5246
Loop time of 614.613 on 1 procs for 50000 steps with 10000 atoms

unfix 1
unfix 2
write_restart 	restart.PE_nc10_cl1000.dreiding3

#####################################################
# Equilibration Stage 4 (NPT dynamics at 100 K)
fix		1 all npt temp 100 100 50 iso 0 0 1000 drag 2
fix		2 all momentum 1 linear 1 1 1
thermo_style	custom step temp press epair ebond eangle edihed pxx pyy pzz lx ly lz
thermo          10
timestep	0.5
reset_timestep 	0
run		50000
Step Temp Press E_pair E_bond E_angle E_dihed Pxx Pyy Pzz Lx Ly Lz
0    103.53324     83.79077   -14306.627    905.36666    1221.2437    3946.8881   -151.77871    337.53342    65.617604    65.598734    65.598734    65.598734
Averages over the last 2501 of 5001 rows, steps 25000 to 50000:
Temp Press E_pair E_bond E_angle E_dihed Pxx Pyy Pzz Lx Ly Lz
99.9979 -0.401834 -14405.1 896.429 1217.9 3881.58 37.5547 -25.7423 -13.0179 65.4906 65.4906 65.4906
Loop time of 672.427 on 1 procs for 50000 steps with 10000 atoms

unfix 1
unfix 2
write_restart 	restart.PE_nc10_cl1000.dreiding4

#####################################################
# Uniaxial Tensile Deformation
run 0
Step Temp Press E_pair E_bond E_angle E_dihed Pxx Pyy Pzz Lx Ly Lz
50000    99.734922    -49.50568   -14395.122    897.32017    1226.4551    3873.0178    194.95597   -256.50663   -86.966381    65.522185    65.522185    65.522185
Loop time of 9.53674e-07 on 1 procs for 0 steps with 10000 atoms

variable tmp equal "lx"
variable L0 equal 65.5221853379263
variable strain equal "(lx - v_L0)/v_L0"
variable p1 equal "v_strain"
variable p2 equal "-pxx/10000*1.01325"
variable p3 equal "-pyy/10000*1.01325"
variable p4 equal "-pzz/10000*1.01325"
variable p5 equal "lx"
variable p6 equal "ly"
variable p7 equal "lz"
variable p8 equal "temp"
variable t2 equal "epair"
variable t3 equal "ebond"
variable t4 equal "eangle"
variable t5 equal "edihed"
fix		1 all npt temp 100 100 50 y 0 0 1000 z 0 0 1000 drag 2
fix		2 all deform 1 x erate 1e-5 units box remap x
thermo_style	custom step temp pxx pyy pzz lx ly lz epair ebond eangle edihed
thermo          100
timestep	1
reset_timestep	0
run		171800
Step Temp Pxx Pyy Pzz Lx Ly Lz E_pair E_bond E_angle E_dihed
0    99.734922    194.95597   -256.50663   -86.966381    65.522185    65.522185    65.522185   -14395.122    897.32017    1226.4551    3873.0178
Averages over the last 424 of 848 rows, steps 42400 to 84700:
Temp Pxx Pyy Pzz Lx Ly Lz E_pair E_bond E_angle E_dihed
100.143 -1050.63 7.04107 4.44043 107.162 52.7598 53.6096 -13612.9 826.94 1239.09 3983.29
   84800    9
